Circuit: * D:\UtilisateurTZ\Supérieur\INSA\5A\SmartDevices\Projet\2020_2021_Xu_Zennaro\Elec_lab\shieldCircuit.asc

Direct Newton iteration for .op point succeeded.

Date: Tue Dec 08 09:31:34 2020
Total elapsed time: 61.418 seconds.

tnom = 27
temp = 27
method = modified trap
totiter = 2000194
traniter = 2000172
tranpoints = 1000087
accept = 1000070
rejected = 17
matrix size = 17
fillins = 5
solver = Normal
Matrix Compiler1: 706 bytes object code size  0.2/0.1/[0.1]
Matrix Compiler2: 1.34 KB object code size  0.2/0.2/[0.1]

