Circuit: * D:\UtilisateurTZ\Supérieur\INSA\5A\SmartDevices\Projet\2020_2021_Xu_Zennaro\Elec_lab\shieldCircuit.asc

Direct Newton iteration for .op point succeeded.

Date: Mon Dec 07 14:09:01 2020
Total elapsed time: 0.155 seconds.

tnom = 27
temp = 27
method = trap
totiter = 22
traniter = 0
tranpoints = 0
accept = 0
rejected = 0
matrix size = 11
fillins = 7
solver = Normal
Matrix Compiler1:      36 opcodes
Matrix Compiler2: 993 bytes object code size
