Circuit: * D:\UtilisateurTZ\Supérieur\INSA\5A\SmartDevices\Projet\2020_2021_Xu_Zennaro\Elec_lab\shieldCircuit.asc

Direct Newton iteration for .op point succeeded.

Date: Thu Dec 17 10:57:11 2020
Total elapsed time: 28.588 seconds.

tnom = 27
temp = 27
method = modified trap
totiter = 2000212
traniter = 2000190
tranpoints = 1000096
accept = 1000077
rejected = 19
matrix size = 17
fillins = 5
solver = Normal
Matrix Compiler1: 706 bytes object code size  0.3/0.1/[0.1]
Matrix Compiler2: 1.34 KB object code size  0.2/0.2/[0.2]

